.MODEL 2SC2655 NPN(
+ IS=8.8111E-15
+ BF=164
+ VAF=100
+ IKF=6.3687
+ XTB=1.5
+ ISE=68.197E-15
+ NE=1.4705
+ BR=10.573
+ VAR=100
+ IKR=91.376E-3
+ ISC=26.265E-12
+ NC=2.0018
+ NK=.4398
+ RC=47.627E-3
+ CJE=2.0000E-12
+ CJC=72.874E-12
+ MJC=.33333
+ TF=437.89E-12
+ XTF=10
+ VTF=10
+ ITF=1
+ TR=190.47E-9)