Version 4
SHEET 1 1508 680
WIRE 1024 -240 768 -240
WIRE 48 -208 16 -208
WIRE 352 -208 112 -208
WIRE 688 -80 688 -240
WIRE 688 -80 496 -80
WIRE 848 -80 688 -80
WIRE 848 -48 848 -80
WIRE 496 -32 496 -80
WIRE 16 0 16 -208
WIRE 16 0 -160 0
WIRE 176 0 16 0
WIRE 352 16 352 -208
WIRE 352 16 240 16
WIRE 432 16 352 16
WIRE 688 16 688 -80
WIRE 176 32 112 32
WIRE 848 48 848 32
WIRE -160 64 -160 0
WIRE 624 64 496 64
WIRE -800 112 -800 64
WIRE -672 112 -672 64
WIRE -528 112 -528 64
WIRE -400 112 -400 64
WIRE 496 144 496 64
WIRE 544 144 496 144
WIRE 688 144 688 112
WIRE 688 144 624 144
WIRE 848 160 848 112
WIRE -160 224 -160 144
WIRE 432 224 -160 224
WIRE 688 224 688 144
WIRE 688 224 512 224
WIRE 688 256 688 224
WIRE 64 320 64 304
FLAG -528 192 0
FLAG -528 64 RAW
FLAG 208 -16 VCC
FLAG -672 192 0
FLAG -672 64 VCC
FLAG -160 224 fb
FLAG 688 336 0
FLAG 1024 -240 RAW
FLAG -800 192 0
FLAG -800 64 -VCC
FLAG 208 48 -VCC
FLAG -400 192 0
FLAG -400 64 ref
FLAG 112 32 ref
FLAG -160 0 inv
FLAG 848 160 0
SYMBOL voltage -528 96 R0
WINDOW 123 24 44 Left 2
WINDOW 39 0 0 Left 0
WINDOW 3 24 72 Left 2
SYMATTR Value 5
SYMATTR InstName V1
SYMBOL OpAmps\\opamp2 208 -48 R0
WINDOW 3 -44 -49 Left 2
SYMATTR Value LM358
SYMATTR InstName U1
SYMBOL voltage -672 96 R0
WINDOW 123 24 44 Left 2
WINDOW 39 0 0 Left 0
WINDOW 3 30 86 Left 2
SYMATTR Value 5
SYMATTR InstName V3
SYMBOL voltage -160 160 R180
WINDOW 123 24 100 Left 2
WINDOW 39 0 0 Left 0
WINDOW 3 24 128 Left 2
SYMATTR Value2 AC 1
SYMATTR Value ""
SYMATTR InstName V4
SYMBOL res 672 240 R0
SYMATTR InstName R3
SYMATTR Value 0.23
SYMBOL voltage -800 96 R0
WINDOW 123 24 44 Left 2
WINDOW 39 0 0 Left 0
WINDOW 3 30 86 Left 2
SYMATTR Value -5
SYMATTR InstName V2
SYMBOL voltage -400 96 R0
WINDOW 123 24 44 Left 2
WINDOW 39 0 0 Left 0
WINDOW 3 24 72 Left 2
SYMATTR Value2 AC 0
SYMATTR Value {Von}
SYMATTR InstName V5
SYMBOL ind 672 -224 R270
WINDOW 0 32 56 VTop 2
WINDOW 3 5 56 VBottom 2
SYMATTR InstName L1
SYMATTR Value 3µ
SYMBOL cap 112 -224 R90
WINDOW 0 0 32 VBottom 2
WINDOW 3 32 32 VTop 2
SYMATTR InstName C2
SYMATTR Value 100p
SYMBOL res 528 208 R90
WINDOW 0 0 56 VBottom 2
WINDOW 3 32 56 VTop 2
SYMATTR InstName R6
SYMATTR Value 10k
SYMBOL cap 832 48 R0
SYMATTR InstName C3
SYMATTR Value 2.2µ
SYMBOL res 832 -64 R0
SYMATTR InstName R1
SYMATTR Value 1
SYMBOL res 640 128 R90
WINDOW 0 0 56 VBottom 2
WINDOW 3 32 56 VTop 2
SYMATTR InstName R4
SYMATTR Value 100
SYMBOL npn 624 16 R0
SYMATTR InstName Q1
SYMATTR Value 2SC5824
SYMBOL npn 432 -32 R0
SYMATTR InstName Q2
SYMATTR Value 2N3904
TEXT -560 248 Left 2 !.ac dec 1000 1 10Meg
TEXT -552 296 Left 2 !.inc TLV271.LIB
TEXT -552 328 Left 2 !.inc LM358.LIB
TEXT -848 248 Left 2 !;tran 500ms
TEXT -552 360 Left 2 !.lib TIP122.LIB
TEXT -480 -80 Left 2 !.param Von=0.25
