Version 4
SHEET 1 3784 724
WIRE 1472 -752 1184 -752
WIRE 1472 -720 1472 -752
WIRE 1104 -688 1104 -752
WIRE 1472 -608 1472 -640
WIRE 1104 -480 1104 -608
WIRE 1296 -480 1104 -480
WIRE 1104 -448 1104 -480
WIRE 1296 -432 1296 -480
WIRE 1376 -432 1296 -432
WIRE 1376 -400 1296 -400
WIRE 1104 -352 1104 -368
WIRE 1296 -352 1296 -400
WIRE 1296 -352 1104 -352
WIRE 624 -304 608 -304
WIRE 704 -304 688 -304
WIRE -688 -256 -688 -304
WIRE -560 -256 -560 -304
WIRE 1104 -208 1104 -352
WIRE 1104 -208 912 -208
WIRE 1264 -208 1104 -208
WIRE 1264 -176 1264 -208
WIRE 912 -160 912 -208
WIRE 496 -128 432 -128
WIRE 528 -128 528 -304
WIRE 528 -128 496 -128
WIRE 592 -128 528 -128
WIRE 704 -112 704 -304
WIRE 704 -112 656 -112
WIRE 736 -112 704 -112
WIRE 848 -112 816 -112
WIRE 1104 -112 1104 -208
WIRE 304 -96 240 -96
WIRE 496 -96 384 -96
WIRE 592 -96 496 -96
WIRE 1264 -80 1264 -96
WIRE 1040 -64 912 -64
WIRE -1088 -16 -1088 -64
WIRE -960 -16 -960 -64
WIRE -816 -16 -816 -64
WIRE -688 -16 -688 -64
WIRE 912 16 912 -64
WIRE 960 16 912 16
WIRE 1104 16 1104 -16
WIRE 1104 16 1040 16
WIRE 1264 32 1264 -16
WIRE 432 96 432 -128
WIRE 480 96 432 96
WIRE 672 96 560 96
WIRE 1104 96 1104 16
WIRE 1104 96 672 96
WIRE 672 112 672 96
WIRE 1104 128 1104 96
WIRE 672 240 672 192
WIRE 1104 352 1104 208
FLAG -816 64 0
FLAG -816 -64 RAW
FLAG 624 -144 VCC
IOPIN 624 -144 In
FLAG -960 64 0
FLAG -960 -64 VCC
FLAG 1104 352 0
FLAG -1088 64 0
FLAG -1088 -64 -VCC
FLAG 624 -80 -VCC
IOPIN 624 -80 In
FLAG -688 64 0
FLAG -688 -64 ref
FLAG 240 -96 ref
IOPIN 240 -96 In
FLAG 1264 32 0
FLAG -688 -304 vOffset
IOPIN -688 -304 In
FLAG -688 -176 0
FLAG 1472 -608 0
FLAG -560 -304 V1
IOPIN -560 -304 In
FLAG -560 -176 0
FLAG 496 -96 pos
FLAG 496 -128 neg
FLAG 672 240 VCC
IOPIN 672 240 In
FLAG 1408 -448 VCC
IOPIN 1408 -448 In
FLAG 1408 -384 -VCC
IOPIN 1408 -384 In
SYMBOL voltage -816 -32 R0
WINDOW 123 24 44 Left 2
WINDOW 39 0 0 Left 0
WINDOW 3 24 72 Left 2
SYMATTR Value 60
SYMATTR InstName V1
SYMBOL voltage -960 -32 R0
WINDOW 123 24 44 Left 2
WINDOW 39 0 0 Left 0
WINDOW 3 30 86 Left 2
SYMATTR Value 12
SYMATTR InstName V3
SYMBOL res 1088 112 R0
SYMATTR InstName R3
SYMATTR Value 1
SYMBOL voltage -1088 -32 R0
WINDOW 123 24 44 Left 2
WINDOW 39 0 0 Left 0
WINDOW 3 30 86 Left 2
SYMATTR Value 0
SYMATTR InstName V2
SYMBOL voltage -688 -32 R0
WINDOW 123 60 55 Left 2
WINDOW 39 0 0 Left 0
WINDOW 3 24 72 Left 2
SYMATTR Value 2.4
SYMATTR InstName V5
SYMBOL ind 1088 -736 R270
WINDOW 0 32 56 VTop 2
WINDOW 3 5 56 VBottom 2
SYMATTR InstName L1
SYMATTR Value 3µ
SYMBOL res 464 112 R270
WINDOW 0 32 56 VTop 2
WINDOW 3 0 56 VBottom 2
SYMATTR InstName R1
SYMATTR Value 1k
SYMBOL cap 1248 -80 R0
SYMATTR InstName C2
SYMATTR Value 2.2µ
SYMBOL res 1248 -192 R0
SYMATTR InstName R5
SYMATTR Value 3.3
SYMBOL cap 688 -320 R90
WINDOW 0 0 32 VBottom 2
WINDOW 3 32 32 VTop 2
SYMATTR InstName C1
SYMATTR Value 220p
SYMBOL res 944 32 R270
WINDOW 0 32 56 VTop 2
WINDOW 3 0 56 VBottom 2
SYMATTR InstName R2
SYMATTR Value 47
SYMBOL npn 848 -160 R0
SYMATTR InstName Q3
SYMATTR Value 2SC5866
SYMBOL npn 1040 -112 R0
SYMATTR InstName Q1
SYMATTR Value 2SCR583D3
SYMBOL res 1088 -704 R0
SYMATTR InstName R4
SYMATTR Value 0.1
SYMBOL res 720 -96 R270
WINDOW 0 32 56 VTop 2
WINDOW 3 0 56 VBottom 2
SYMATTR InstName R6
SYMATTR Value 10k
SYMBOL voltage -688 -272 R0
WINDOW 123 24 44 Left 2
WINDOW 39 0 0 Left 0
WINDOW 3 24 72 Left 2
SYMATTR Value 8
SYMATTR InstName V6
SYMBOL VOLTAGE 1472 -736 R0
WINDOW 123 0 0 Left 0
WINDOW 39 0 0 Left 0
SYMATTR InstName V7
SYMATTR Value PULSE(0 30 15m 40u 40u 10m 1000)
SYMBOL voltage -560 -272 R0
WINDOW 123 24 44 Left 2
WINDOW 39 0 0 Left 0
WINDOW 3 24 72 Left 2
SYMATTR Value 0.2
SYMATTR InstName V8
SYMBOL OpAmps\\opamp2 624 -176 R0
SYMATTR InstName U2
SYMATTR Value LM358
SYMBOL voltage 400 -96 R90
WINDOW 123 60 55 Left 2
WINDOW 39 0 0 Left 0
WINDOW 3 24 72 Left 2
SYMATTR Value 10m
SYMATTR InstName V9
SYMBOL res 624 -320 R90
WINDOW 0 0 56 VBottom 2
WINDOW 3 32 56 VTop 2
SYMATTR InstName R7
SYMATTR Value 1
SYMBOL res 656 96 R0
SYMATTR InstName R8
SYMATTR Value 1k
SYMBOL res 1088 -464 R0
SYMATTR InstName R9
SYMATTR Value 0.215
SYMBOL OpAmps\\opamp2 1408 -480 R0
SYMATTR InstName U1
SYMATTR Value LM358
TEXT -952 160 Left 2 !.inc LM358.LIB
TEXT -952 192 Left 2 !.tran 30m
TEXT -952 128 Left 2 !.inc TL082.LIB
TEXT 688 200 Left 2 ;on power on\nwhen ref=0\noffsets opAmp down
TEXT -952 104 Left 2 !.inc TLV9102.LIB
