Version 4
SHEET 1 1576 1124
WIRE 0 -352 -80 -352
WIRE 384 -352 64 -352
WIRE 672 -352 672 -416
WIRE 672 -256 672 -272
WIRE 672 -256 480 -256
WIRE 480 -208 480 -256
WIRE -1104 -192 -1104 -240
WIRE -976 -192 -976 -240
WIRE -832 -192 -832 -240
WIRE -704 -192 -704 -240
WIRE -80 -176 -80 -352
WIRE -80 -176 -176 -176
WIRE 160 -176 -80 -176
WIRE 384 -160 384 -352
WIRE 384 -160 224 -160
WIRE 416 -160 384 -160
WIRE 672 -160 672 -256
WIRE 160 -144 96 -144
WIRE 608 -112 480 -112
WIRE 480 -32 480 -112
WIRE 528 -32 480 -32
WIRE 672 -32 672 -64
WIRE 672 -32 608 -32
WIRE -176 48 -176 -176
WIRE 448 48 -176 48
WIRE 672 48 672 -32
WIRE 672 48 528 48
WIRE 672 80 672 48
WIRE -944 256 -976 256
WIRE -688 256 -944 256
WIRE -560 256 -608 256
WIRE -944 288 -944 256
WIRE -944 384 -944 368
WIRE 0 384 -80 384
WIRE 384 384 64 384
WIRE 672 384 672 320
WIRE 672 480 672 464
WIRE 672 480 480 480
WIRE -944 496 -944 448
WIRE 480 528 480 480
WIRE -80 560 -80 384
WIRE -80 560 -176 560
WIRE 160 560 -80 560
WIRE 384 576 384 384
WIRE 384 576 224 576
WIRE 416 576 384 576
WIRE 672 576 672 480
WIRE 160 592 96 592
WIRE 608 624 480 624
WIRE 480 704 480 624
WIRE 528 704 480 704
WIRE 672 704 672 672
WIRE 672 704 608 704
WIRE -176 784 -176 560
WIRE 448 784 -176 784
WIRE 672 784 672 704
WIRE 672 784 528 784
WIRE 672 816 672 784
FLAG -832 -112 0
FLAG -832 -240 RAW
FLAG 192 -192 VCC
FLAG -976 -112 0
FLAG -976 -240 VCC
FLAG 672 160 0
FLAG -560 256 RAW
FLAG -1104 -112 0
FLAG -1104 -240 -VCC
FLAG 192 -128 -VCC
FLAG -704 -32 0
FLAG -704 -240 ref
FLAG 96 -144 ref
FLAG -944 496 0
FLAG -976 256 V_IN
FLAG 672 -416 V_IN
FLAG 192 544 VCC
FLAG 672 896 0
FLAG 192 608 -VCC
FLAG 96 592 ref
FLAG 672 320 V_IN
SYMBOL voltage -832 -208 R0
WINDOW 123 24 44 Left 2
WINDOW 39 0 0 Left 0
WINDOW 3 24 72 Left 2
SYMATTR Value 24
SYMATTR InstName V1
SYMBOL voltage -976 -208 R0
WINDOW 123 24 44 Left 2
WINDOW 39 0 0 Left 0
WINDOW 3 30 86 Left 2
SYMATTR Value 7
SYMATTR InstName V2
SYMBOL res 656 64 R0
SYMATTR InstName R1
SYMATTR Value 0.23
SYMBOL voltage -1104 -208 R0
WINDOW 123 24 44 Left 2
WINDOW 39 0 0 Left 0
WINDOW 3 30 86 Left 2
SYMATTR Value 0
SYMATTR InstName V3
SYMBOL voltage -704 -208 R0
WINDOW 123 60 55 Left 2
WINDOW 39 0 0 Left 0
WINDOW 3 24 72 Left 2
SYMATTR Value2 AC 0
SYMATTR Value {Von}
SYMATTR InstName V4
SYMBOL ind -704 272 R270
WINDOW 0 32 56 VTop 2
WINDOW 3 5 56 VBottom 2
SYMATTR InstName L1
SYMATTR Value 3µ
SYMBOL OpAmps\\opamp2 192 -224 R0
SYMATTR InstName U1
SYMATTR Value LM358
SYMBOL res 544 32 R90
WINDOW 0 0 56 VBottom 2
WINDOW 3 32 56 VTop 2
SYMATTR InstName R2
SYMATTR Value 1k
SYMBOL voltage -704 -128 R0
WINDOW 123 45 55 Left 2
WINDOW 39 0 0 Left 0
WINDOW 3 41 87 Left 2
WINDOW 0 -88 66 Left 2
SYMATTR Value2 AC 0
SYMATTR Value PULSE({0.001 - Von} 0 100n 100n 100n 1m)
SYMATTR InstName V5
SYMBOL cap -960 384 R0
SYMATTR InstName C1
SYMATTR Value 2.2µ
SYMBOL res -960 272 R0
SYMATTR InstName R3
SYMATTR Value 1
SYMBOL cap 64 -368 R90
WINDOW 0 0 32 VBottom 2
WINDOW 3 32 32 VTop 2
SYMATTR InstName C2
SYMATTR Value 100p
SYMBOL res 624 -48 R90
WINDOW 0 0 56 VBottom 2
WINDOW 3 32 56 VTop 2
SYMATTR InstName R4
SYMATTR Value 50
SYMBOL npn 416 -208 R0
SYMATTR InstName Q1
SYMATTR Value 2SC5866
SYMBOL npn 608 -160 R0
SYMATTR InstName Q2
SYMATTR Value 2SCR583D3
SYMBOL res 656 -368 R0
SYMATTR InstName R5
SYMATTR Value 0.1
SYMBOL res 656 800 R0
SYMATTR InstName R6
SYMATTR Value 0.23
SYMBOL OpAmps\\opamp2 192 512 R0
SYMATTR InstName U2
SYMATTR Value LM358
SYMBOL res 544 768 R90
WINDOW 0 0 56 VBottom 2
WINDOW 3 32 56 VTop 2
SYMATTR InstName R7
SYMATTR Value 1k
SYMBOL cap 64 368 R90
WINDOW 0 0 32 VBottom 2
WINDOW 3 32 32 VTop 2
SYMATTR InstName C4
SYMATTR Value 100p
SYMBOL res 624 688 R90
WINDOW 0 0 56 VBottom 2
WINDOW 3 32 56 VTop 2
SYMATTR InstName R9
SYMATTR Value 50
SYMBOL npn 416 528 R0
SYMATTR InstName Q3
SYMATTR Value 2SC5866
SYMBOL npn 608 576 R0
SYMATTR InstName Q4
SYMATTR Value 2SCR583D3
SYMBOL res 656 368 R0
SYMATTR InstName R10
SYMATTR Value 0.1
TEXT -544 -128 Left 2 !.param Von=0.25
TEXT -1072 -16 Left 2 !.inc LM358.LIB
TEXT -1072 16 Left 2 !.tran 100u
