Version 4
SHEET 1 880 680
WIRE -608 -288 -608 -320
WIRE -448 -288 -448 -320
WIRE -304 -288 -304 -320
WIRE 656 -96 656 -144
WIRE 656 -96 592 -96
WIRE 592 -80 592 -96
WIRE -608 -64 -608 -96
WIRE 384 -48 384 -80
WIRE 384 -48 272 -48
WIRE 480 -48 384 -48
WIRE 480 -32 480 -48
WIRE 592 16 592 -16
WIRE 656 16 656 -16
WIRE 656 16 592 16
WIRE 656 48 656 16
WIRE 272 64 272 -48
WIRE 240 80 208 80
WIRE 272 80 272 64
WIRE 480 96 480 48
WIRE 480 96 304 96
WIRE 576 96 480 96
WIRE 240 112 224 112
WIRE 576 128 576 96
WIRE 576 128 560 128
WIRE 608 128 576 128
WIRE -608 208 -608 176
WIRE 224 208 224 112
WIRE 224 208 -80 208
WIRE 208 256 208 80
WIRE 304 256 208 256
WIRE 480 256 480 96
WIRE 480 256 384 256
WIRE 656 288 656 144
FLAG -448 -208 0
FLAG -448 -320 vcc5
FLAG 272 128 0
FLAG -80 208 real-temp
FLAG -304 -208 0
FLAG -304 -320 temp-ref
FLAG 128 80 temp-ref
FLAG 656 288 0
FLAG 656 -144 raw
FLAG -608 -208 0
FLAG -608 -320 v-ref
FLAG 384 -80 vcc5
FLAG -608 16 0
FLAG -608 -96 raw
FLAG -608 288 0
FLAG -608 176 real-temp
FLAG 560 128 base
SYMBOL voltage -448 -304 R0
WINDOW 3 26 104 Left 2
WINDOW 123 0 0 Left 0
WINDOW 39 0 0 Left 0
SYMATTR Value 5
SYMATTR InstName V2
SYMBOL OpAmps\\opamp2 272 32 R0
SYMATTR InstName U1
SYMATTR Value LM393
SYMBOL res 224 64 R90
WINDOW 0 53 99 VBottom 2
WINDOW 3 32 56 VTop 2
SYMATTR InstName R2
SYMATTR Value 1k
SYMBOL res 400 240 R90
WINDOW 0 0 56 VBottom 2
WINDOW 3 32 56 VTop 2
SYMATTR InstName R4
SYMATTR Value 33k
SYMBOL voltage -304 -304 R0
WINDOW 3 26 104 Left 2
WINDOW 123 0 0 Left 0
WINDOW 39 0 0 Left 0
SYMATTR Value 2.45
SYMATTR InstName V1
SYMBOL res 464 -48 R0
SYMATTR InstName R5
SYMATTR Value 1k
SYMBOL res 640 -112 R0
SYMATTR InstName R_FAN
SYMATTR Value 40
SYMBOL diode 608 -16 R180
WINDOW 0 24 64 Left 2
WINDOW 3 24 0 Left 2
SYMATTR InstName D1
SYMBOL nmos 608 48 R0
SYMATTR InstName M1
SYMATTR Value 2N7002
SYMBOL voltage -608 -304 R0
WINDOW 3 26 104 Left 2
WINDOW 123 0 0 Left 0
WINDOW 39 0 0 Left 0
SYMATTR Value 4.55
SYMATTR InstName V3
SYMBOL voltage -608 -80 R0
WINDOW 3 26 104 Left 2
WINDOW 123 0 0 Left 0
WINDOW 39 0 0 Left 0
SYMATTR Value 7
SYMATTR InstName V4
SYMBOL voltage -608 192 R0
WINDOW 3 26 104 Left 2
WINDOW 123 0 0 Left 0
WINDOW 39 0 0 Left 0
SYMATTR Value PWL(0 2 1 3 2 2)
SYMATTR InstName V5
TEXT 184 -360 Left 2 !.tran 2
TEXT 184 -392 Left 2 !.lib LM393.lib
TEXT -392 64 Left 2 ;2.09V ~0C\n2.90V ~120C
TEXT -216 64 Left 2 ;2.38V ~40C\n2.52V ~60C
