Version 4
SHEET 1 1448 680
WIRE 1328 -224 1328 -240
WIRE 352 -96 64 -96
WIRE 352 -80 352 -96
WIRE 1328 0 1328 -224
WIRE 352 32 352 0
WIRE 352 32 224 32
WIRE 544 32 352 32
WIRE 640 32 544 32
WIRE 1008 32 976 32
WIRE 224 48 224 32
WIRE 1152 48 1072 48
WIRE 1264 48 1232 48
WIRE 1008 64 832 64
WIRE 640 112 640 32
WIRE 352 128 352 32
WIRE -448 160 -448 112
WIRE -336 160 -336 112
WIRE 64 160 64 -96
WIRE 224 160 224 128
WIRE 320 160 224 160
WIRE 832 176 832 64
WIRE 224 208 224 160
WIRE 976 224 976 32
WIRE 1088 224 976 224
WIRE 1328 224 1328 96
WIRE 1328 224 1168 224
WIRE 1328 256 1328 224
WIRE 976 272 976 224
WIRE 64 336 64 240
WIRE 224 336 224 288
WIRE 224 336 64 336
WIRE 352 336 352 192
WIRE 352 336 224 336
WIRE 64 352 64 336
WIRE 1328 384 1328 336
FLAG 64 352 0
FLAG 1040 80 -VCC
FLAG 544 32 ref
FLAG -336 240 0
FLAG -336 112 -VCC
FLAG -448 240 0
FLAG -448 112 RAW
FLAG 1328 -224 RAW
FLAG 1328 384 0
FLAG 1040 16 RAW
FLAG 832 256 0
FLAG 976 352 0
FLAG 640 192 0
SYMBOL voltage 64 144 R0
WINDOW 3 -185 98 Left 2
WINDOW 123 0 0 Left 0
WINDOW 39 0 0 Left 0
SYMATTR Value PWL(0 6 1 12)
SYMATTR InstName V1
SYMBOL tl431 336 128 R0
SYMATTR InstName U1
SYMBOL res 336 -96 R0
SYMATTR InstName R1
SYMATTR Value 60
SYMBOL res 208 192 R0
SYMATTR InstName R2
SYMATTR Value 3.32k
SYMBOL res 208 32 R0
SYMATTR InstName R3
SYMATTR Value 2.74k
SYMBOL OpAmps\\opamp2 1040 -16 R0
SYMATTR InstName U2
SYMATTR Value LM358
SYMBOL npn 1264 0 R0
SYMATTR InstName Q2
SYMATTR Value 2N3904
SYMBOL voltage -336 144 R0
WINDOW 123 24 44 Left 2
WINDOW 39 0 0 Left 0
WINDOW 3 30 86 Left 2
SYMATTR Value 0
SYMATTR InstName V3
SYMBOL voltage -448 144 R0
WINDOW 123 24 44 Left 2
WINDOW 39 0 0 Left 0
WINDOW 3 24 72 Left 2
SYMATTR Value 6.9
SYMATTR InstName V4
SYMBOL res 1312 240 R0
SYMATTR InstName R_LOAD
SYMATTR Value 50
SYMBOL res 1248 32 R90
WINDOW 0 0 56 VBottom 2
WINDOW 3 32 56 VTop 2
SYMATTR InstName R4
SYMATTR Value 100
SYMBOL voltage 832 160 R0
WINDOW 123 24 44 Left 2
WINDOW 39 0 0 Left 0
WINDOW 3 24 72 Left 2
SYMATTR Value 1
SYMATTR InstName V2
SYMBOL res 960 256 R0
SYMATTR InstName R5
SYMATTR Value 2k
SYMBOL res 1184 208 R90
WINDOW 0 0 56 VBottom 2
WINDOW 3 32 56 VTop 2
SYMATTR InstName R6
SYMATTR Value 1m
SYMBOL current 640 112 R0
WINDOW 123 0 0 Left 0
WINDOW 39 0 0 Left 0
SYMATTR InstName I1
SYMATTR Value 10m
TEXT -152 72 Left 2 !.tran 0 10 0
TEXT -152 48 Left 2 !.include tl431.lib
TEXT 512 56 Left 2 ;4.55V
TEXT 416 104 Left 2 ;~10mA available
TEXT -152 24 Left 2 !.inc LM358.LIB
