Version 4
SHEET 1 880 680
WIRE 352 -96 64 -96
WIRE 352 -80 352 -96
WIRE 352 32 352 0
WIRE 352 32 224 32
WIRE 480 32 352 32
WIRE 640 32 480 32
WIRE 224 48 224 32
WIRE 352 128 352 32
WIRE 640 128 640 32
WIRE 64 160 64 -96
WIRE 224 160 224 128
WIRE 320 160 224 160
WIRE 224 208 224 160
WIRE 64 336 64 240
WIRE 224 336 224 288
WIRE 224 336 64 336
WIRE 352 336 352 192
WIRE 352 336 224 336
WIRE 64 352 64 336
FLAG 64 352 0
FLAG 480 32 vref
FLAG 640 208 0
SYMBOL voltage 64 144 R0
WINDOW 3 -185 98 Left 2
WINDOW 123 0 0 Left 0
WINDOW 39 0 0 Left 0
SYMATTR Value PWL(0 6 1 12)
SYMATTR InstName V1
SYMBOL tl431 336 128 R0
SYMATTR InstName U1
SYMBOL res 336 -96 R0
SYMATTR InstName R1
SYMATTR Value 470
SYMBOL res 208 192 R0
SYMATTR InstName R2
SYMATTR Value 3.32k
SYMBOL res 208 32 R0
SYMATTR InstName R3
SYMATTR Value 2.74k
SYMBOL res 624 112 R0
SYMATTR InstName R4
SYMATTR Value 400
TEXT -80 72 Left 0 !.tran 0 10 0
TEXT -80 56 Left 0 !.include tl431.lib
TEXT 512 56 Left 2 ;4.55V
TEXT 664 80 Left 2 ;~10mA available
